!-Generator IDFEditor 1.48
!-Option SortedOrder

!-NOTE: All comments with '!-' are ignored by the IDFEditor and are generated automatically.
!-      Use '!' comments if they need to be retained when using the IDFEditor.


!-   ===========  ALL OBJECTS IN CLASS: LIGHTS ===========

Lights,
    Sa:Sto.0.s8.hazardous General lighting,  !- Name
    Sa:Sto.0.s8.hazardous,   !- Zone or ZoneList Name
    ASHRAE 90.1 Lighting Receptacle - Warehouse,  !- Schedule Name
    LightingLevel,           !- Design Level Calculation Method
    3956.8002,               !- Lighting Level {W}
    ,                        !- Watts per Zone Floor Area {W/m2}
    ,                        !- Watts per Person {W/person}
    0,                       !- Return Air Fraction
    0.72,                    !- Fraction Radiant
    0.18,                    !- Fraction Visible
    1,                       !- Fraction Replaceable
    Interior Lighting;       !- End-Use Subcategory

Lights,
    Sa:Sto.0.s5.hochregal General lighting,  !- Name
    Sa:Sto.0.s5.hochregal,   !- Zone or ZoneList Name
    ASHRAE 90.1 Lighting Receptacle - Warehouse,  !- Schedule Name
    LightingLevel,           !- Design Level Calculation Method
    32904.2379,              !- Lighting Level {W}
    ,                        !- Watts per Zone Floor Area {W/m2}
    ,                        !- Watts per Person {W/person}
    0,                       !- Return Air Fraction
    0.72,                    !- Fraction Radiant
    0.18,                    !- Fraction Visible
    1,                       !- Fraction Replaceable
    Interior Lighting;       !- End-Use Subcategory

Lights,
    Sa:Sto.0.s5.nonfood General lighting,  !- Name
    Sa:Sto.0.s5.nonfood,     !- Zone or ZoneList Name
    ASHRAE 90.1 Lighting Receptacle - Warehouse,  !- Schedule Name
    LightingLevel,           !- Design Level Calculation Method
    14783.9111,              !- Lighting Level {W}
    ,                        !- Watts per Zone Floor Area {W/m2}
    ,                        !- Watts per Person {W/person}
    0,                       !- Return Air Fraction
    0.72,                    !- Fraction Radiant
    0.18,                    !- Fraction Visible
    1,                       !- Fraction Replaceable
    Interior Lighting;       !- End-Use Subcategory

Lights,
    Sa:Sto.0.s5.block General lighting,  !- Name
    Sa:Sto.0.s5.block,       !- Zone or ZoneList Name
    ASHRAE 90.1 Lighting Receptacle - Warehouse,  !- Schedule Name
    LightingLevel,           !- Design Level Calculation Method
    14710.1854,              !- Lighting Level {W}
    ,                        !- Watts per Zone Floor Area {W/m2}
    ,                        !- Watts per Person {W/person}
    0,                       !- Return Air Fraction
    0.72,                    !- Fraction Radiant
    0.18,                    !- Fraction Visible
    1,                       !- Fraction Replaceable
    Interior Lighting;       !- End-Use Subcategory

Lights,
    Sa:Sto.0.s5.WEWAschoko General lighting,  !- Name
    Sa:Sto.0.s5.WEWAschoko,  !- Zone or ZoneList Name
    ASHRAE 90.1 Lighting Receptacle - Warehouse,  !- Schedule Name
    LightingLevel,           !- Design Level Calculation Method
    6335.9818,               !- Lighting Level {W}
    ,                        !- Watts per Zone Floor Area {W/m2}
    ,                        !- Watts per Person {W/person}
    0,                       !- Return Air Fraction
    0.72,                    !- Fraction Radiant
    0.18,                    !- Fraction Visible
    1,                       !- Fraction Replaceable
    Interior Lighting;       !- End-Use Subcategory

Lights,
    Sa:Sto.0.s5.WEWA General lighting,  !- Name
    Sa:Sto.0.s5.WEWA,        !- Zone or ZoneList Name
    ASHRAE 90.1 Lighting Receptacle - Warehouse,  !- Schedule Name
    LightingLevel,           !- Design Level Calculation Method
    21523.3532,              !- Lighting Level {W}
    ,                        !- Watts per Zone Floor Area {W/m2}
    ,                        !- Watts per Person {W/person}
    0,                       !- Return Air Fraction
    0.72,                    !- Fraction Radiant
    0.18,                    !- Fraction Visible
    1,                       !- Fraction Replaceable
    Interior Lighting;       !- End-Use Subcategory

Lights,
    Sa:Sto.0.s5.KTschoko18C General lighting,  !- Name
    Sa:Sto.0.s5.KTschoko18C, !- Zone or ZoneList Name
    ASHRAE 90.1 Lighting Receptacle - Warehouse,  !- Schedule Name
    LightingLevel,           !- Design Level Calculation Method
    14411.8384,              !- Lighting Level {W}
    ,                        !- Watts per Zone Floor Area {W/m2}
    ,                        !- Watts per Person {W/person}
    0,                       !- Return Air Fraction
    0.72,                    !- Fraction Radiant
    0.18,                    !- Fraction Visible
    1,                       !- Fraction Replaceable
    Interior Lighting;       !- End-Use Subcategory

Lights,
    Sf:Sto.0.s5.kuhlung1C General lighting,  !- Name
    Sf:Sto.0.s5.kuhlung1C,   !- Zone or ZoneList Name
    ASHRAE 90.1 Lighting Receptacle - Warehouse,  !- Schedule Name
    LightingLevel,           !- Design Level Calculation Method
    20709.2126,              !- Lighting Level {W}
    ,                        !- Watts per Zone Floor Area {W/m2}
    ,                        !- Watts per Person {W/person}
    0,                       !- Return Air Fraction
    0.72,                    !- Fraction Radiant
    0.18,                    !- Fraction Visible
    1,                       !- Fraction Replaceable
    Interior Lighting;       !- End-Use Subcategory

Lights,
    Sf:St.0.s5.tkmns24C General lighting,  !- Name
    Sf:St.0.s5.tkmns24C,     !- Zone or ZoneList Name
    ASHRAE 90.1 Lighting Receptacle - Warehouse,  !- Schedule Name
    LightingLevel,           !- Design Level Calculation Method
    14859.901,               !- Lighting Level {W}
    ,                        !- Watts per Zone Floor Area {W/m2}
    ,                        !- Watts per Person {W/person}
    0,                       !- Return Air Fraction
    0.72,                    !- Fraction Radiant
    0.18,                    !- Fraction Visible
    1,                       !- Fraction Replaceable
    Interior Lighting;       !- End-Use Subcategory

Lights,
    Sb:Sto.0.s4.obst14C General lighting,  !- Name
    Sb:Sto.0.s4.obst14C,     !- Zone or ZoneList Name
    ASHRAE 90.1 Lighting Receptacle - Warehouse,  !- Schedule Name
    LightingLevel,           !- Design Level Calculation Method
    18246.5286,              !- Lighting Level {W}
    ,                        !- Watts per Zone Floor Area {W/m2}
    ,                        !- Watts per Person {W/person}
    0,                       !- Return Air Fraction
    0.72,                    !- Fraction Radiant
    0.18,                    !- Fraction Visible
    1,                       !- Fraction Replaceable
    Interior Lighting;       !- End-Use Subcategory

Lights,
    Sb:Sto.0.s4.WEWA1C General lighting,  !- Name
    Sb:Sto.0.s4.WEWA1C,      !- Zone or ZoneList Name
    ASHRAE 90.1 Lighting Receptacle - Warehouse,  !- Schedule Name
    LightingLevel,           !- Design Level Calculation Method
    22433.1373,              !- Lighting Level {W}
    ,                        !- Watts per Zone Floor Area {W/m2}
    ,                        !- Watts per Person {W/person}
    0,                       !- Return Air Fraction
    0.72,                    !- Fraction Radiant
    0.18,                    !- Fraction Visible
    1,                       !- Fraction Replaceable
    Interior Lighting;       !- End-Use Subcategory

Lights,
    Sb:Sto.0.s4.obst4C General lighting,  !- Name
    Sb:Sto.0.s4.obst4C,      !- Zone or ZoneList Name
    ASHRAE 90.1 Lighting Receptacle - Warehouse,  !- Schedule Name
    LightingLevel,           !- Design Level Calculation Method
    5578.328,                !- Lighting Level {W}
    ,                        !- Watts per Zone Floor Area {W/m2}
    ,                        !- Watts per Person {W/person}
    0,                       !- Return Air Fraction
    0.72,                    !- Fraction Radiant
    0.18,                    !- Fraction Visible
    1,                       !- Fraction Replaceable
    Interior Lighting;       !- End-Use Subcategory

Lights,
    Sc:Sto.0.s5.block General lighting,  !- Name
    Sc:Sto.0.s5.block,       !- Zone or ZoneList Name
    ASHRAE 90.1 Lighting Receptacle - Warehouse,  !- Schedule Name
    LightingLevel,           !- Design Level Calculation Method
    61168.9495,              !- Lighting Level {W}
    ,                        !- Watts per Zone Floor Area {W/m2}
    ,                        !- Watts per Person {W/person}
    0,                       !- Return Air Fraction
    0.72,                    !- Fraction Radiant
    0.18,                    !- Fraction Visible
    1,                       !- Fraction Replaceable
    Interior Lighting;       !- End-Use Subcategory

Lights,
    Se:Sto.0.s5.kettenf2C General lighting,  !- Name
    Se:Sto.0.s5.kettenf2C,   !- Zone or ZoneList Name
    ASHRAE 90.1 Lighting Receptacle - Warehouse,  !- Schedule Name
    LightingLevel,           !- Design Level Calculation Method
    2946.0286,               !- Lighting Level {W}
    ,                        !- Watts per Zone Floor Area {W/m2}
    ,                        !- Watts per Person {W/person}
    0,                       !- Return Air Fraction
    0.72,                    !- Fraction Radiant
    0.18,                    !- Fraction Visible
    1,                       !- Fraction Replaceable
    Interior Lighting;       !- End-Use Subcategory

Lights,
    Sd:Sto.0.s5.kalthalle General lighting,  !- Name
    Sd:Sto.0.s5.kalthalle,   !- Zone or ZoneList Name
    ASHRAE 90.1 Lighting Receptacle - Warehouse,  !- Schedule Name
    LightingLevel,           !- Design Level Calculation Method
    27087.4216,              !- Lighting Level {W}
    ,                        !- Watts per Zone Floor Area {W/m2}
    ,                        !- Watts per Person {W/person}
    0,                       !- Return Air Fraction
    0.72,                    !- Fraction Radiant
    0.18,                    !- Fraction Visible
    1,                       !- Fraction Replaceable
    Interior Lighting;       !- End-Use Subcategory

Lights,
    W0:Lad.0.s8.3.ladezone General lighting,  !- Name
    W0:Lad.0.s8.3.ladezone,  !- Zone or ZoneList Name
    ASHRAE 90.1 Lighting Receptacle - Warehouse,  !- Schedule Name
    LightingLevel,           !- Design Level Calculation Method
    7280.5353,               !- Lighting Level {W}
    ,                        !- Watts per Zone Floor Area {W/m2}
    ,                        !- Watts per Person {W/person}
    0,                       !- Return Air Fraction
    0.72,                    !- Fraction Radiant
    0.18,                    !- Fraction Visible
    1,                       !- Fraction Replaceable
    Interior Lighting;       !- End-Use Subcategory

Lights,
    W0:Wor.0.s6.werkstatt General lighting,  !- Name
    W0:Wor.0.s6.werkstatt,   !- Zone or ZoneList Name
    ASHRAE 90.1 Lighting Receptacle - Warehouse,  !- Schedule Name
    LightingLevel,           !- Design Level Calculation Method
    4031.8628,               !- Lighting Level {W}
    ,                        !- Watts per Zone Floor Area {W/m2}
    ,                        !- Watts per Person {W/person}
    0,                       !- Return Air Fraction
    0.72,                    !- Fraction Radiant
    0.18,                    !- Fraction Visible
    1,                       !- Fraction Replaceable
    Interior Lighting;       !- End-Use Subcategory

Lights,
    Staircase:Staircase General lighting,  !- Name
    Staircase:Staircase,     !- Zone or ZoneList Name
    ASHRAE 90.1 Lighting Receptacle - Office,  !- Schedule Name
    LightingLevel,           !- Design Level Calculation Method
    177.3888,                !- Lighting Level {W}
    ,                        !- Watts per Zone Floor Area {W/m2}
    ,                        !- Watts per Person {W/person}
    0,                       !- Return Air Fraction
    0.72,                    !- Fraction Radiant
    0.18,                    !- Fraction Visible
    1,                       !- Fraction Replaceable
    Interior Lighting;       !- End-Use Subcategory

Lights,
    O0:San.0.s3.WCFahrer General lighting,  !- Name
    O0:San.0.s3.WCFahrer,    !- Zone or ZoneList Name
    ASHRAE 90.1 Lighting Receptacle - Office,  !- Schedule Name
    LightingLevel,           !- Design Level Calculation Method
    222.1048,                !- Lighting Level {W}
    ,                        !- Watts per Zone Floor Area {W/m2}
    ,                        !- Watts per Person {W/person}
    0,                       !- Return Air Fraction
    0.72,                    !- Fraction Radiant
    0.18,                    !- Fraction Visible
    1,                       !- Fraction Replaceable
    Interior Lighting;       !- End-Use Subcategory

Lights,
    O0:Rc.0.s3.fnhltfhrr General lighting,  !- Name
    O0:Rc.0.s3.fnhltfhrr,    !- Zone or ZoneList Name
    ASHRAE 90.1 Lighting Receptacle - Office,  !- Schedule Name
    LightingLevel,           !- Design Level Calculation Method
    336.2437,                !- Lighting Level {W}
    ,                        !- Watts per Zone Floor Area {W/m2}
    ,                        !- Watts per Person {W/person}
    0,                       !- Return Air Fraction
    0.72,                    !- Fraction Radiant
    0.18,                    !- Fraction Visible
    1,                       !- Fraction Replaceable
    Interior Lighting;       !- End-Use Subcategory

Lights,
    O0:San.0.s3.WC General lighting,  !- Name
    O0:San.0.s3.WC,          !- Zone or ZoneList Name
    ASHRAE 90.1 Lighting Receptacle - Office,  !- Schedule Name
    LightingLevel,           !- Design Level Calculation Method
    385.7942,                !- Lighting Level {W}
    ,                        !- Watts per Zone Floor Area {W/m2}
    ,                        !- Watts per Person {W/person}
    0,                       !- Return Air Fraction
    0.72,                    !- Fraction Radiant
    0.18,                    !- Fraction Visible
    1,                       !- Fraction Replaceable
    Interior Lighting;       !- End-Use Subcategory

Lights,
    O0:Off.0.s3.manager General lighting,  !- Name
    O0:Off.0.s3.manager,     !- Zone or ZoneList Name
    ASHRAE 90.1 Lighting Receptacle - Office,  !- Schedule Name
    LightingLevel,           !- Design Level Calculation Method
    385.2695,                !- Lighting Level {W}
    ,                        !- Watts per Zone Floor Area {W/m2}
    ,                        !- Watts per Person {W/person}
    0,                       !- Return Air Fraction
    0.72,                    !- Fraction Radiant
    0.18,                    !- Fraction Visible
    1,                       !- Fraction Replaceable
    Interior Lighting;       !- End-Use Subcategory

Lights,
    O0:Off.0.s3.theke General lighting,  !- Name
    O0:Off.0.s3.theke,       !- Zone or ZoneList Name
    ASHRAE 90.1 Lighting Receptacle - Office,  !- Schedule Name
    LightingLevel,           !- Design Level Calculation Method
    905.4213,                !- Lighting Level {W}
    ,                        !- Watts per Zone Floor Area {W/m2}
    ,                        !- Watts per Person {W/person}
    0,                       !- Return Air Fraction
    0.72,                    !- Fraction Radiant
    0.18,                    !- Fraction Visible
    1,                       !- Fraction Replaceable
    Interior Lighting;       !- End-Use Subcategory

Lights,
    Om:Soc.m.s3.teekuche General lighting,  !- Name
    Om:Soc.m.s3.teekuche,    !- Zone or ZoneList Name
    ASHRAE 90.1 Lighting Receptacle - Office,  !- Schedule Name
    LightingLevel,           !- Design Level Calculation Method
    168.1039,                !- Lighting Level {W}
    ,                        !- Watts per Zone Floor Area {W/m2}
    ,                        !- Watts per Person {W/person}
    0,                       !- Return Air Fraction
    0.72,                    !- Fraction Radiant
    0.18,                    !- Fraction Visible
    1,                       !- Fraction Replaceable
    Interior Lighting;       !- End-Use Subcategory

Lights,
    Om:Off.m.s3.buro General lighting,  !- Name
    Om:Off.m.s3.buro,        !- Zone or ZoneList Name
    ASHRAE 90.1 Lighting Receptacle - Office,  !- Schedule Name
    LightingLevel,           !- Design Level Calculation Method
    1453.3656,               !- Lighting Level {W}
    ,                        !- Watts per Zone Floor Area {W/m2}
    ,                        !- Watts per Person {W/person}
    0,                       !- Return Air Fraction
    0.72,                    !- Fraction Radiant
    0.18,                    !- Fraction Visible
    1,                       !- Fraction Replaceable
    Interior Lighting;       !- End-Use Subcategory

Lights,
    Om:Cn.m.s3.bschprchng General lighting,  !- Name
    Om:Cn.m.s3.bschprchng,   !- Zone or ZoneList Name
    ASHRAE 90.1 Lighting Receptacle - Office,  !- Schedule Name
    LightingLevel,           !- Design Level Calculation Method
    396.438,                 !- Lighting Level {W}
    ,                        !- Watts per Zone Floor Area {W/m2}
    ,                        !- Watts per Person {W/person}
    0,                       !- Return Air Fraction
    0.72,                    !- Fraction Radiant
    0.18,                    !- Fraction Visible
    1,                       !- Fraction Replaceable
    Interior Lighting;       !- End-Use Subcategory

Lights,
    Om:San.m.s3.WC General lighting,  !- Name
    Om:San.m.s3.WC,          !- Zone or ZoneList Name
    ASHRAE 90.1 Lighting Receptacle - Office,  !- Schedule Name
    LightingLevel,           !- Design Level Calculation Method
    216.9269,                !- Lighting Level {W}
    ,                        !- Watts per Zone Floor Area {W/m2}
    ,                        !- Watts per Person {W/person}
    0,                       !- Return Air Fraction
    0.72,                    !- Fraction Radiant
    0.18,                    !- Fraction Visible
    1,                       !- Fraction Replaceable
    Interior Lighting;       !- End-Use Subcategory

Lights,
    S1b:St.1.s4.nnfdrtr General lighting,  !- Name
    S1b:St.1.s4.nnfdrtr,     !- Zone or ZoneList Name
    ASHRAE 90.1 Lighting Receptacle - Warehouse,  !- Schedule Name
    LightingLevel,           !- Design Level Calculation Method
    38495.9387,              !- Lighting Level {W}
    ,                        !- Watts per Zone Floor Area {W/m2}
    ,                        !- Watts per Person {W/person}
    0,                       !- Return Air Fraction
    0.72,                    !- Fraction Radiant
    0.18,                    !- Fraction Visible
    1,                       !- Fraction Replaceable
    Interior Lighting;       !- End-Use Subcategory

Lights,
    Tec.1:Tec.1.s8.45technical General lighting,  !- Name
    Tec.1:Tec.1.s8.45technical,  !- Zone or ZoneList Name
    ASHRAE 90.1 Lighting Receptacle - Warehouse,  !- Schedule Name
    LightingLevel,           !- Design Level Calculation Method
    5036.9935,               !- Lighting Level {W}
    ,                        !- Watts per Zone Floor Area {W/m2}
    ,                        !- Watts per Person {W/person}
    0,                       !- Return Air Fraction
    0.72,                    !- Fraction Radiant
    0.18,                    !- Fraction Visible
    1,                       !- Fraction Replaceable
    Interior Lighting;       !- End-Use Subcategory

Lights,
    Tec.1:St.nct.1.s3.rchv General lighting,  !- Name
    Tec.1:St.nct.1.s3.rchv,  !- Zone or ZoneList Name
    ASHRAE 90.1 Lighting Receptacle - Warehouse,  !- Schedule Name
    LightingLevel,           !- Design Level Calculation Method
    3541.9365,               !- Lighting Level {W}
    ,                        !- Watts per Zone Floor Area {W/m2}
    ,                        !- Watts per Person {W/person}
    0,                       !- Return Air Fraction
    0.72,                    !- Fraction Radiant
    0.18,                    !- Fraction Visible
    1,                       !- Fraction Replaceable
    Interior Lighting;       !- End-Use Subcategory

Lights,
    S1a:St.1.s4.tgmtrl General lighting,  !- Name
    S1a:St.1.s4.tgmtrl,      !- Zone or ZoneList Name
    ASHRAE 90.1 Lighting Receptacle - Warehouse,  !- Schedule Name
    LightingLevel,           !- Design Level Calculation Method
    41427.5912,              !- Lighting Level {W}
    ,                        !- Watts per Zone Floor Area {W/m2}
    ,                        !- Watts per Person {W/person}
    0,                       !- Return Air Fraction
    0.72,                    !- Fraction Radiant
    0.18,                    !- Fraction Visible
    1,                       !- Fraction Replaceable
    Interior Lighting;       !- End-Use Subcategory

Lights,
    O1:Tec.1.s1.general General lighting,  !- Name
    O1:Tec.1.s1.general,     !- Zone or ZoneList Name
    ASHRAE 90.1 Lighting Receptacle - Office,  !- Schedule Name
    LightingLevel,           !- Design Level Calculation Method
    1289.0621,               !- Lighting Level {W}
    ,                        !- Watts per Zone Floor Area {W/m2}
    ,                        !- Watts per Person {W/person}
    0,                       !- Return Air Fraction
    0.72,                    !- Fraction Radiant
    0.18,                    !- Fraction Visible
    1,                       !- Fraction Replaceable
    Interior Lighting;       !- End-Use Subcategory

Lights,
    O1:Off.1.s1.immo2 General lighting,  !- Name
    O1:Off.1.s1.immo2,       !- Zone or ZoneList Name
    ASHRAE 90.1 Lighting Receptacle - Office,  !- Schedule Name
    LightingLevel,           !- Design Level Calculation Method
    2832.9287,               !- Lighting Level {W}
    ,                        !- Watts per Zone Floor Area {W/m2}
    ,                        !- Watts per Person {W/person}
    0,                       !- Return Air Fraction
    0.72,                    !- Fraction Radiant
    0.18,                    !- Fraction Visible
    1,                       !- Fraction Replaceable
    Interior Lighting;       !- End-Use Subcategory

Lights,
    O1:Soc.1.s2.sozialraum General lighting,  !- Name
    O1:Soc.1.s2.sozialraum,  !- Zone or ZoneList Name
    ASHRAE 90.1 Lighting Receptacle - Office,  !- Schedule Name
    LightingLevel,           !- Design Level Calculation Method
    2222.8695,               !- Lighting Level {W}
    ,                        !- Watts per Zone Floor Area {W/m2}
    ,                        !- Watts per Person {W/person}
    0,                       !- Return Air Fraction
    0.72,                    !- Fraction Radiant
    0.18,                    !- Fraction Visible
    1,                       !- Fraction Replaceable
    Interior Lighting;       !- End-Use Subcategory

Lights,
    O1:Soc.1.s2.umkleide General lighting,  !- Name
    O1:Soc.1.s2.umkleide,    !- Zone or ZoneList Name
    ASHRAE 90.1 Lighting Receptacle - Office,  !- Schedule Name
    LightingLevel,           !- Design Level Calculation Method
    2916.2846,               !- Lighting Level {W}
    ,                        !- Watts per Zone Floor Area {W/m2}
    ,                        !- Watts per Person {W/person}
    0,                       !- Return Air Fraction
    0.72,                    !- Fraction Radiant
    0.18,                    !- Fraction Visible
    1,                       !- Fraction Replaceable
    Interior Lighting;       !- End-Use Subcategory

Lights,
    O1:Sto.1.s1.lager General lighting,  !- Name
    O1:Sto.1.s1.lager,       !- Zone or ZoneList Name
    ASHRAE 90.1 Lighting Receptacle - Office,  !- Schedule Name
    LightingLevel,           !- Design Level Calculation Method
    560.8084,                !- Lighting Level {W}
    ,                        !- Watts per Zone Floor Area {W/m2}
    ,                        !- Watts per Person {W/person}
    0,                       !- Return Air Fraction
    0.72,                    !- Fraction Radiant
    0.18,                    !- Fraction Visible
    1,                       !- Fraction Replaceable
    Interior Lighting;       !- End-Use Subcategory

Lights,
    O1:Off.1.s1.immo1 General lighting,  !- Name
    O1:Off.1.s1.immo1,       !- Zone or ZoneList Name
    ASHRAE 90.1 Lighting Receptacle - Office,  !- Schedule Name
    LightingLevel,           !- Design Level Calculation Method
    2690.6103,               !- Lighting Level {W}
    ,                        !- Watts per Zone Floor Area {W/m2}
    ,                        !- Watts per Person {W/person}
    0,                       !- Return Air Fraction
    0.72,                    !- Fraction Radiant
    0.18,                    !- Fraction Visible
    1,                       !- Fraction Replaceable
    Interior Lighting;       !- End-Use Subcategory

Lights,
    O1:Off.1.s1.vertrieb General lighting,  !- Name
    O1:Off.1.s1.vertrieb,    !- Zone or ZoneList Name
    ASHRAE 90.1 Lighting Receptacle - Office,  !- Schedule Name
    LightingLevel,           !- Design Level Calculation Method
    2675.5985,               !- Lighting Level {W}
    ,                        !- Watts per Zone Floor Area {W/m2}
    ,                        !- Watts per Person {W/person}
    0,                       !- Return Air Fraction
    0.72,                    !- Fraction Radiant
    0.18,                    !- Fraction Visible
    1,                       !- Fraction Replaceable
    Interior Lighting;       !- End-Use Subcategory

Lights,
    O1:Soc.1.s1.teekuche General lighting,  !- Name
    O1:Soc.1.s1.teekuche,    !- Zone or ZoneList Name
    ASHRAE 90.1 Lighting Receptacle - Office,  !- Schedule Name
    LightingLevel,           !- Design Level Calculation Method
    1188.3363,               !- Lighting Level {W}
    ,                        !- Watts per Zone Floor Area {W/m2}
    ,                        !- Watts per Person {W/person}
    0,                       !- Return Air Fraction
    0.72,                    !- Fraction Radiant
    0.18,                    !- Fraction Visible
    1,                       !- Fraction Replaceable
    Interior Lighting;       !- End-Use Subcategory

Lights,
    O1:San.1.s1.WC General lighting,  !- Name
    O1:San.1.s1.WC,          !- Zone or ZoneList Name
    ASHRAE 90.1 Lighting Receptacle - Office,  !- Schedule Name
    LightingLevel,           !- Design Level Calculation Method
    272.9726,                !- Lighting Level {W}
    ,                        !- Watts per Zone Floor Area {W/m2}
    ,                        !- Watts per Person {W/person}
    0,                       !- Return Air Fraction
    0.72,                    !- Fraction Radiant
    0.18,                    !- Fraction Visible
    1,                       !- Fraction Replaceable
    Interior Lighting;       !- End-Use Subcategory

Lights,
    O1:Con.1.s1.konferenz General lighting,  !- Name
    O1:Con.1.s1.konferenz,   !- Zone or ZoneList Name
    ASHRAE 90.1 Lighting Receptacle - Office,  !- Schedule Name
    LightingLevel,           !- Design Level Calculation Method
    1039.2803,               !- Lighting Level {W}
    ,                        !- Watts per Zone Floor Area {W/m2}
    ,                        !- Watts per Person {W/person}
    0,                       !- Return Air Fraction
    0.72,                    !- Fraction Radiant
    0.18,                    !- Fraction Visible
    1,                       !- Fraction Replaceable
    Interior Lighting;       !- End-Use Subcategory

Lights,
    O1:San.1.s1.WCZ1 General lighting,  !- Name
    O1:San.1.s1.WCZ1,        !- Zone or ZoneList Name
    ASHRAE 90.1 Lighting Receptacle - Office,  !- Schedule Name
    LightingLevel,           !- Design Level Calculation Method
    313.8513,                !- Lighting Level {W}
    ,                        !- Watts per Zone Floor Area {W/m2}
    ,                        !- Watts per Person {W/person}
    0,                       !- Return Air Fraction
    0.72,                    !- Fraction Radiant
    0.18,                    !- Fraction Visible
    1,                       !- Fraction Replaceable
    Interior Lighting;       !- End-Use Subcategory

Lights,
    O1:Con.1.s1.konferenzZ1 General lighting,  !- Name
    O1:Con.1.s1.konferenzZ1, !- Zone or ZoneList Name
    ASHRAE 90.1 Lighting Receptacle - Office,  !- Schedule Name
    LightingLevel,           !- Design Level Calculation Method
    341.3255,                !- Lighting Level {W}
    ,                        !- Watts per Zone Floor Area {W/m2}
    ,                        !- Watts per Person {W/person}
    0,                       !- Return Air Fraction
    0.72,                    !- Fraction Radiant
    0.18,                    !- Fraction Visible
    1,                       !- Fraction Replaceable
    Interior Lighting;       !- End-Use Subcategory

Lights,
    O1:Con.1.s1.konferenzZ2 General lighting,  !- Name
    O1:Con.1.s1.konferenzZ2, !- Zone or ZoneList Name
    ASHRAE 90.1 Lighting Receptacle - Office,  !- Schedule Name
    LightingLevel,           !- Design Level Calculation Method
    1003.0363,               !- Lighting Level {W}
    ,                        !- Watts per Zone Floor Area {W/m2}
    ,                        !- Watts per Person {W/person}
    0,                       !- Return Air Fraction
    0.72,                    !- Fraction Radiant
    0.18,                    !- Fraction Visible
    1,                       !- Fraction Replaceable
    Interior Lighting;       !- End-Use Subcategory

Lights,