

Version,
  6.0;

SimulationControl,
  Yes,                      !- Do Zone Sizing Calculation
  Yes,                      !- Do System Sizing Calculation
  Yes,                      !- Do Plant Sizing Calculation
  Yes,                      !- Run Simulation for Sizing Periods
  Yes;                      !- Run Simulation for Weather File Run Periods

Building,
  Untitled,                 !- Name
  -0,                       !- North Axis {deg}
  CITY,                     !- Terrain
  0.040000000000000001,     !- Loads Convergence Tolerance Value
  0.40000000000000002,      !- Temperature Convergence Tolerance Value {deltaC}
  FULLINTERIORANDEXTERIOR,  !- Solar Distribution
  25;                       !- Maximum Number of Warmup Days

Timestep,
  4;

Site:Location,
  ABU DHABI- -- ARE,        ! Name
  24.43,                    ! Latitude
  54.649999999999999,       ! Longitude
  4,                        ! Time Zone
  27;                       ! Elevation

RunPeriod,
  ,                         ! Name
  1,                        ! Begin Month
  1,                        ! Begin Day of Month
  1,                        ! End Month
  31,                       ! End Day of Month
  USEWEATHERFILE,           ! Day of Week for Start Day
  Yes,                      ! Use Weather File Holidays and Special Days
  Yes,                      ! Use Weather File Daylight Saving Period
  No,                       ! Apply Weekend Holiday Rule
  Yes,                      ! Use Weather File Rain Indicators
  Yes;                      ! Use Weather File Snow Indicators

RunPeriodControl:SpecialDays,
  Thanksgiving,             !- Name
  4th Thursday in November,  !- Start Date
  1,                        !- Duration {days}
  Holiday;                  !- Special Day Type

RunPeriodControl:SpecialDays,
  Columbus Day,             !- Name
  2nd Monday in October,    !- Start Date
  1,                        !- Duration {days}
  Holiday;                  !- Special Day Type

RunPeriodControl:SpecialDays,
  Veterans Day,             !- Name
  November 11,              !- Start Date
  1,                        !- Duration {days}
  Holiday;                  !- Special Day Type

RunPeriodControl:SpecialDays,
  Independence Day,         !- Name
  July 4,                   !- Start Date
  1,                        !- Duration {days}
  Holiday;                  !- Special Day Type

RunPeriodControl:SpecialDays,
  Christmas,                !- Name
  December 25,              !- Start Date
  1,                        !- Duration {days}
  Holiday;                  !- Special Day Type

RunPeriodControl:SpecialDays,
  Memorial Day,             !- Name
  Last Monday in May,       !- Start Date
  1,                        !- Duration {days}
  Holiday;                  !- Special Day Type

RunPeriodControl:SpecialDays,
  Presidents Day,           !- Name
  3rd Monday in February,   !- Start Date
  1,                        !- Duration {days}
  Holiday;                  !- Special Day Type

RunPeriodControl:SpecialDays,
  MLK Day,                  !- Name
  3rd Monday in January,    !- Start Date
  1,                        !- Duration {days}
  Holiday;                  !- Special Day Type

RunPeriodControl:SpecialDays,
  New Years Day,            !- Name
  January 1,                !- Start Date
  1,                        !- Duration {days}
  Holiday;                  !- Special Day Type

RunPeriodControl:SpecialDays,
  Labor Day,                !- Name
  1st Monday in September,  !- Start Date
  1,                        !- Duration {days}
  Holiday;                  !- Special Day Type

! Daylight Saving Period in US
RunPeriodControl:DaylightSavingTime,
  2nd Sunday in March,      !- Start Date
  1st Sunday in November;   !- End Date

ScheduleTypeLimits,
  On/Off,                   !- Name
  0.0,                      !- Lower Limit Value
  1.0,                      !- Upper Limit Value
  Discrete;                 !- Numeric Type

ScheduleTypeLimits,
  Temperature,              !- Name
  -60,                      !- Lower Limit Value {A3}
  200,                      !- Upper Limit Value {A3}
  CONTINUOUS;               !- Numeric Type

ScheduleTypeLimits,
  Humidity,                 !- Name
  10,                       !- Lower Limit Value {A3}
  90,                       !- Upper Limit Value {A3}
  CONTINUOUS;               !- Numeric Type

ScheduleTypeLimits,
  Number;                   !- Name

ScheduleTypeLimits,
  Control Type,             !- Name
  0,                        !- Lower Limit Value {A3}
  4,                        !- Upper Limit Value {A3}
  Discrete;                 !- Numeric Type

ScheduleTypeLimits,
  Any Number;               !- Name

ScheduleTypeLimits,
  Fraction,                 !- Name
  0.0,                      !- Lower Limit Value {A3}
  1.0,                      !- Upper Limit Value {A3}
  CONTINUOUS;               !- Numeric Type

Schedule:Compact,
  Heating Setpoint Schedule,  !- Name
  Temperature,              !- Schedule Type Limits Name
  Through: 12/31,           !- Field 1
  For: Weekdays,            !- Field 2
  Until: 05:00,
  15.6,                     !- Field 3
  Until: 19:00,
  21.0,                     !- Field 5
  Until: 24:00,
  15.6,                     !- Field 7
  For SummerDesignDay,      !- Field 9
  Until: 24:00,
  15.6,                     !- Field 10
  For: Saturday,            !- Field 12
  Until: 06:00,
  15.6,                     !- Field 13
  Until: 17:00,
  21.0,                     !- Field 15
  Until: 24:00,
  15.6,                     !- Field 17
  For: WinterDesignDay,     !- Field 19
  Until: 24:00,
  21.0,                     !- Field 20
  For: Sunday Holidays AllOtherDays,  !- Field 22
  Until: 24:00,
  15.6;                     !- Field 23

! Schedule Light Manufacturing Occupancy, ASHRAE 90.1-1989, Section 13
!  Equivalent Full-Load Hours: Weekdays 9.2, Saturday 2, Sunday/Holidays 0.6
Schedule:Compact,
  Manufacturing Occupancy,  !- Name
  Fraction,                 !- Schedule Type Limits Name
  Through: 12/31,           !- Field 1
  For: Weekdays SummerDesignDay,  !- Field 2
  Until: 06:00,
  0.0,                      !- Field 4
  Until: 07:00,
  0.1,                      !- Field 6
  Until: 08:00,
  0.2,                      !- Field 8
  Until: 12:00,
  0.95,                     !- Field 10
  Until: 13:00,
  0.5,                      !- Field 12
  Until: 17:00,
  0.95,                     !- Field 14
  Until: 18:00,
  0.3,                      !- Field 16
  Until: 22:00,
  0.1,                      !- Field 18
  Until: 24:00,
  0.05,                     !- Field 20
  For: Saturday WinterDesignDay,  !- Field 21
  Until: 06:00,
  0.0,                      !- Field 23
  Until: 08:00,
  0.1,                      !- Field 25
  Until: 12:00,
  0.3,                      !- Field 27
  Until: 17:00,
  0.1,                      !- Field 29
  Until: 19:00,
  0.05,                     !- Field 31
  Until: 24:00,
  0.0,                      !- Field 33
  For: Sunday Holidays AllOtherDays,  !- Field 34
  Until: 06:00,
  0.0,                      !- Field 36
  Until: 18:00,
  0.05,                     !- Field 38
  Until: 24:00,
  0.0;                      !- Field 40

Schedule:Compact,
  Office Lights Schedule,   !- Name
  Fraction,                 !- Schedule Type Limits Name
  Through: 12/31,           !- Field 1
  For: Weekdays,            !- Field 2
  Until: 05:00,
  0.05,                     !- Field 3
  Until: 07:00,
  0.1,                      !- Field 5
  Until: 08:00,
  0.3,                      !- Field 7
  Until: 17:00,
  0.9,                      !- Field 9
  Until: 18:00,
  0.5,                      !- Field 11
  Until: 20:00,
  0.3,                      !- Field 13
  Until: 22:00,
  0.2,                      !- Field 15
  Until: 23:00,
  0.1,                      !- Field 17
  Until: 24:00,
  0.05,                     !- Field 19
  For: SummerDesignDay,     !- Field 21
  Until: 24:00,
  1.0,                      !- Field 22
  For: Saturday,            !- Field 24
  Until: 06:00,
  0.05,                     !- Field 25
  Until: 08:00,
  0.1,                      !- Field 27
  Until: 12:00,
  0.3,                      !- Field 29
  Until: 17:00,
  0.15,                     !- Field 31
  Until: 24:00,
  0.05,                     !- Field 33
  For: WinterDesignDay,     !- Field 35
  Until: 24:00,
  0.0,                      !- Field 36
  For: Sunday Holidays AllOtherDays,  !- Field 38
  Until: 24:00,
  0.05;                     !- Field 39

! Schedule Office Service Water Heating, ASHRAE 90.1-1989, Section 13
!  Equivalent Full-Load Hours: Weekdays 5.37, Saturday 2.56, Sunday/Holidays 1.13
Schedule:Compact,
  Office SWH,               !- Name
  Fraction,                 !- Schedule Type Limits Name
  Through: 12/31,           !- Field 1
  For: Weekdays SummerDesignDay,  !- Field 2
  Until: 05:00,
  0.05,                     !- Field 4
  Until: 06:00,
  0.08,                     !- Field 6
  Until: 07:00,
  0.07,                     !- Field 8
  Until: 08:00,
  0.19,                     !- Field 10
  Until: 09:00,
  0.35,                     !- Field 12
  Until: 10:00,
  0.38,                     !- Field 14
  Until: 11:00,
  0.39,                     !- Field 16
  Until: 12:00,
  0.47,                     !- Field 18
  Until: 13:00,
  0.57,                     !- Field 20
  Until: 14:00,
  0.54,                     !- Field 22
  Until: 15:00,
  0.34,                     !- Field 24
  Until: 16:00,
  0.33,                     !- Field 26
  Until: 17:00,
  0.44,                     !- Field 28
  Until: 18:00,
  0.26,                     !- Field 30
  Until: 19:00,
  0.21,                     !- Field 32
  Until: 20:00,
  0.15,                     !- Field 34
  Until: 21:00,
  0.17,                     !- Field 36
  Until: 22:00,
  0.08,                     !- Field 38
  Until: 24:00,
  0.05,                     !- Field 40
  For: Saturday WinterDesignDay,  !- Field 41
  Until: 05:00,
  0.05,                     !- Field 43
  Until: 06:00,
  0.08,                     !- Field 45
  Until: 07:00,
  0.07,                     !- Field 47
  Until: 08:00,
  0.11,                     !- Field 49
  Until: 09:00,
  0.15,                     !- Field 51
  Until: 10:00,
  0.21,                     !- Field 53
  Until: 11:00,
  0.19,                     !- Field 55
  Until: 12:00,
  0.23,                     !- Field 57
  Until: 13:00,
  0.20,                     !- Field 59
  Until: 14:00,
  0.19,                     !- Field 61
  Until: 15:00,
  0.15,                     !- Field 63
  Until: 16:00,
  0.13,                     !- Field 65
  Until: 17:00,
  0.14,                     !- Field 67
  Until: 21:00,
  0.07,                     !- Field 69
  Until: 22:00,
  0.09,                     !- Field 71
  Until: 24:00,
  0.05,                     !- Field 73
  For: Sunday Holidays AllOtherDays,  !- Field 74
  Until: 05:00,
  0.04,                     !- Field 76
  Until: 06:00,
  0.07,                     !- Field 78
  Until: 11:00,
  0.04,                     !- Field 80
  Until: 13:00,
  0.06,                     !- Field 82
  Until: 14:00,
  0.09,                     !- Field 84
  Until: 15:00,
  0.06,                     !- Field 86
  Until: 21:00,
  0.04,                     !- Field 88
  Until: 22:00,
  0.07,                     !- Field 90
  Until: 24:00,
  0.04;                     !- Field 92

! Schedule Light Manufacturing Lighting and Receptacles, ASHRAE 90.1-1989, Section 13
!  Equivalent Full-Load Hours: Weekdays 5.37, Saturday 2.56, Sunday/Holidays 1.13
Schedule:Compact,
  Manufacturing Lighting,   !- Name
  Fraction,                 !- Schedule Type Limits Name
  Through: 12/31,           !- Field 1
  For: Weekdays SummerDesignDay,  !- Field 2
  Until: 05:00,
  0.05,                     !- Field 4
  Until: 07:00,
  0.1,                      !- Field 6
  Until: 08:00,
  0.3,                      !- Field 8
  Until: 12:00,
  0.9,                      !- Field 10
  Until: 13:00,
  0.8,                      !- Field 12
  Until: 17:00,
  0.9,                      !- Field 14
  Until: 18:00,
  0.5,                      !- Field 16
  Until: 20:00,
  0.3,                      !- Field 18
  Until: 22:00,
  0.2,                      !- Field 20
  Until: 23:00,
  0.1,                      !- Field 22
  Until: 24:00,
  0.05,                     !- Field 24
  For: Saturday WinterDesignDay,  !- Field 25
  Until: 06:00,
  0.05,                     !- Field 27
  Until: 08:00,
  0.1,                      !- Field 29
  Until: 12:00,
  0.3,                      !- Field 31
  Until: 17:00,
  0.15,                     !- Field 33
  Until: 24:00,
  0.05,                     !- Field 35
  For: Sunday Holidays AllOtherDays,  !- Field 36
  Until: 24:00,
  0.05;                     !- Field 38

! Schedule Multifamily High-Rise One-Zone Dwelling Unit Lighting, ASHRAE 90.1-1989, Section 13
!  Equivalent Full-Load Hours: All days 6.3
Schedule:Compact,
  Multifamily OneZone Lighting,  !- Name
  Fraction,                 !- Schedule Type Limits Name
  Through: 12/31,           !- Field 1
  For: AllDays,             !- Field 2
  Until: 06:00,
  0.0,                      !- Field 4
  Until: 07:00,
  0.95,                     !- Field 6
  Until: 08:00,
  0.85,                     !- Field 8
  Until: 19:00,
  0.0,                      !- Field 10
  Until: 24:00,
  0.9;                      !- Field 12

! Schedule Warehouse HVAC Systems, ASHRAE 90.1-1989, Section 13
!  Equivalent Full-Load Hours: Weekdays 10, Saturday 8, Sunday/Holidays 0
Schedule:Compact,
  Warehouse HVAC,           !- Name
  On/Off,                   !- Schedule Type Limits Name
  Through: 12/31,           !- Field 1
  For: Weekdays SummerDesignDay,  !- Field 2
  Until: 07:00,
  0.0,                      !- Field 4
  Until: 17:00,
  1.0,                      !- Field 6
  Until: 24:00,
  0.0,                      !- Field 8
  For: Saturday WinterDesignDay,  !- Field 9
  Until: 08:00,
  0.0,                      !- Field 11
  Until: 16:00,
  1.0,                      !- Field 13
  Until: 24:00,
  0.0,                      !- Field 15
  For: Sunday Holidays AllOtherDays,  !- Field 16
  Until: 24:00,
  0.0;                      !- Field 18

! Schedule Intermittent
Schedule:Compact,
  Intermittent,             !- Name
  Fraction,                 !- Schedule Type Limits Name
  Through: 12/31,           !- Field 1
  For: AllDays,             !- Field 2
  Until: 08:00,
  0.0,                      !- Field 4
  Until: 18:00,
  1.0,                      !- Field 6
  Until: 24:00,
  0.0;                      !- Field 8

! Schedule Light Manufacturing Service Water Heating, ASHRAE 90.1-1989, Section 13
!  Equivalent Full-Load Hours: Weekdays 5.37, Saturday 2.56, Sunday/Holidays 1.13
Schedule:Compact,
  Manufacturing SWH,        !- Name
  Fraction,                 !- Schedule Type Limits Name
  Through: 12/31,           !- Field 1
  For: Weekdays SummerDesignDay,  !- Field 2
  Until: 05:00,
  0.05,                     !- Field 4
  Until: 06:00,
  0.08,                     !- Field 6
  Until: 07:00,
  0.07,                     !- Field 8
  Until: 08:00,
  0.19,                     !- Field 10
  Until: 09:00,
  0.35,                     !- Field 12
  Until: 10:00,
  0.38,                     !- Field 14
  Until: 11:00,
  0.39,                     !- Field 16
  Until: 12:00,
  0.47,                     !- Field 18
  Until: 13:00,
  0.57,                     !- Field 20
  Until: 14:00,
  0.54,                     !- Field 22
  Until: 15:00,
  0.34,                     !- Field 24
  Until: 16:00,
  0.33,                     !- Field 26
  Until: 17:00,
  0.44,                     !- Field 28
  Until: 18:00,
  0.26,                     !- Field 30
  Until: 19:00,
  0.21,                     !- Field 32
  Until: 20:00,
  0.15,                     !- Field 34
  Until: 21:00,
  0.17,                     !- Field 36
  Until: 22:00,
  0.08,                     !- Field 38
  Until: 24:00,
  0.05,                     !- Field 40
  For: Saturday WinterDesignDay,  !- Field 41
  Until: 05:00,
  0.05,                     !- Field 43
  Until: 06:00,
  0.08,                     !- Field 45
  Until: 07:00,
  0.09,                     !- Field 47
  Until: 08:00,
  0.11,                     !- Field 49
  Until: 09:00,
  0.15,                     !- Field 51
  Until: 10:00,
  0.21,                     !- Field 53
  Until: 11:00,
  0.19,                     !- Field 55
  Until: 12:00,
  0.23,                     !- Field 57
  Until: 13:00,
  0.2,                      !- Field 59
  Until: 14:00,
  0.19,                     !- Field 61
  Until: 15:00,
  0.15,                     !- Field 63
  Until: 16:00,
  0.12,                     !- Field 65
  Until: 17:00,
  0.14,                     !- Field 67
  Until: 21:00,
  0.07,                     !- Field 69
  Until: 22:00,
  0.09,                     !- Field 71
  Until: 24:00,
  0.05,                     !- Field 73
  For: Sunday Holidays AllOtherDays,  !- Field 74
  Until: 05:00,
  0.04,                     !- Field 76
  Until: 06:00,
  0.07,                     !- Field 78
  Until: 11:00,
  0.04,                     !- Field 80
  Until: 13:00,
  0.06,                     !- Field 82
  Until: 14:00,
  0.09,                     !- Field 84
  Until: 15:00,
  0.06,                     !- Field 86
  Until: 21:00,
  0.04,                     !- Field 88
  Until: 22:00,
  0.07,                     !- Field 90
  Until: 24:00,
  0.04;                     !- Field 92

! Schedule Multifamily High-Rise HVAC Systems, ASHRAE 90.1-1989, Section 13
!  Equivalent Full-Load Hours: All days 24
Schedule:Compact,
  Multifamily HVAC,         !- Name
  On/Off,                   !- Schedule Type Limits Name
  Through: 12/31,           !- Field 1
  For: AllDays,             !- Field 2
  Until: 24:00,
  1.0;                      !- Field 4

! Schedule Multifamily High-Rise Two-Zone Dwelling Unit, Bedrooms and Bathrooms Lighting, ASHRAE 90.1-1989, Section 13
!  Equivalent Full-Load Hours: All days 3.24
Schedule:Compact,
  Multifamily TwoZoneBedroom Lighting,  !- Name
  Fraction,                 !- Schedule Type Limits Name
  Through: 12/31,           !- Field 1
  For: AllDays,             !- Field 2
  Until: 06:00,
  0.0,                      !- Field 4
  Until: 07:00,
  0.66,                     !- Field 6
  Until: 08:00,
  0.23,                     !- Field 8
  Until: 19:00,
  0.0,                      !- Field 10
  Until: 21:00,
  0.31,                     !- Field 12
  Until: 22:00,
  0.47,                     !- Field 14
  Until: 24:00,
  0.63;                     !- Field 16

! Schedule Warehouse Occupancy, ASHRAE 90.1-1989, Section 13
!  Equivalent Full-Load Hours: Weekdays 6.8, Saturday 1.2, Sunday/Holidays 0
Schedule:Compact,
  Warehouse Occupancy,      !- Name
  Fraction,                 !- Schedule Type Limits Name
  Through: 12/31,           !- Field 1
  For: Weekdays SummerDesignDay,  !- Field 2
  Until: 07:00,
  0.0,                      !- Field 4
  Until: 08:00,
  0.15,                     !- Field 6
  Until: 09:00,
  0.7,                      !- Field 8
  Until: 12:00,
  0.9,                      !- Field 10
  Until: 13:00,
  0.5,                      !- Field 12
  Until: 16:00,
  0.85,                     !- Field 14
  Until: 17:00,
  0.2,                      !- Field 16
  Until: 24:00,
  0.0,                      !- Field 18
  For: Saturday WinterDesignDay,  !- Field 19
  Until: 08:00,
  0.0,                      !- Field 21
  Until: 12:00,
  0.2,                      !- Field 23
  Until: 16:00,
  0.1,                      !- Field 25
  Until: 24:00,
  0.0,                      !- Field 27
  For: Sunday Holidays AllOtherDays,  !- Field 28
  Until: 24:00,
  0.0;                      !- Field 30

Schedule:Compact,
  Cooling Setpoint Schedule,  !- Name
  Temperature,              !- Schedule Type Limits Name
  Through: 12/31,           !- Field 1
  For: Weekdays SummerDesignDay,  !- Field 2
  Until: 06:00,
  30.0,                     !- Field 3
  Until: 22:00,
  24.0,                     !- Field 5
  Until: 24:00,
  30.0,                     !- Field 7
  For: Saturday,            !- Field 9
  Until: 06:00,
  30.0,                     !- Field 10
  Until: 18:00,
  24.0,                     !- Field 12
  Until: 24:00,
  30.0,                     !- Field 14
  For WinterDesignDay,      !- Field 16
  Until: 24:00,
  30.0,                     !- Field 17
  For: Sunday Holidays AllOtherDays,  !- Field 19
  Until: 24:00,
  30.0;                     !- Field 20

! Schedule Continuous
Schedule:Compact,
  Continuous,               !- Name
  On/Off,                   !- Schedule Type Limits Name
  Through: 12/31,           !- Field 1
  For: AllDays,             !- Field 2
  Until: 24:00,
  1.0;                      !- Field 4

! Schedule School Lighting and Receptacles, ASHRAE 90.1-1989, Section 13
!  Equivalent Full-Load Hours: Weekdays 5.37, Saturday 2.56, Sunday/Holidays 1.13
Schedule:Compact,
  School Lighting,          !- Name
  Fraction,                 !- Schedule Type Limits Name
  Through: 12/31,           !- Field 1
  For: Weekdays SummerDesignDay,  !- Field 2
  Until: 07:00,
  0.02,                     !- Field 4
  Until: 08:00,
  0.3,                      !- Field 6
  Until: 09:00,
  0.85,                     !- Field 8
  Until: 12:00,
  0.95,                     !- Field 10
  Until: 15:00,
  0.8,                      !- Field 12
  Until: 16:00,
  0.7,                      !- Field 14
  Until: 18:00,
  0.5,                      !- Field 16
  Until: 21:00,
  0.35,                     !- Field 18
  Until: 22:00,
  0.3,                      !- Field 20
  Until: 24:00,
  0.02,                     !- Field 22
  For: Saturday WinterDesignDay,  !- Field 23
  Until: 07:00,
  0.02,                     !- Field 25
  Until: 08:00,
  0.05,                     !- Field 27
  Until: 13:00,
  0.15,                     !- Field 29
  Until: 16:00,
  0.05,                     !- Field 31
  Until: 24:00,
  0.02,                     !- Field 33
  For: Sunday Holidays AllOtherDays,  !- Field 34
  Until: 08:00,
  0.02,                     !- Field 36
  Until: 16:00,
  0.05,                     !- Field 38
  Until: 24:00,
  0.02;                     !- Field 40

Schedule:Compact,
  Always On,                !- Name
  Fraction,                 !- Schedule Type Limits Name
  Through: 12/31,           !- Field 1
  For: AllDays,             !- Field 2
  Until: 24:00,
  1.0;                      !- Field 3

! Schedule Multifamily High-Rise Two-Zone Dwelling Unit, Bedrooms and Bathrooms Equipment, ASHRAE 90.1-1989, Section 13
!  Equivalent Full-Load Hours: All days 1.25
Schedule:Compact,
  Multifamily TwoZoneBedroom Equipment,  !- Name
  Fraction,                 !- Schedule Type Limits Name
  Through: 12/31,           !- Field 1
  For: AllDays,             !- Field 2
  Until: 06:00,
  0.03,                     !- Field 4
  Until: 08:00,
  0.06,                     !- Field 6
  Until: 19:00,
  0.03,                     !- Field 8
  Until: 21:00,
  0.09,                     !- Field 10
  Until: 22:00,
  0.2,                      !- Field 12
  Until: 24:00,
  0.12;                     !- Field 14

! Schedule Multifamily High-Rise Service Water Heating, ASHRAE 90.1-1989, Section 13
!  Equivalent Full-Load Hours: Weekdays 6.76, Saturday 6.66, Sunday/Holidays 6.11
Schedule:Compact,
  Multifamily SWH,          !- Name
  Fraction,                 !- Schedule Type Limits Name
  Through: 12/31,           !- Field 1
  For: Weekdays SummerDesignDay,  !- Field 2
  Until: 06:00,
  0.06,                     !- Field 4
  Until: 07:00,
  0.28,                     !- Field 6
  Until: 08:00,
  0.49,                     !- Field 8
  Until: 09:00,
  0.42,                     !- Field 10
  Until: 10:00,
  0.32,                     !- Field 12
  Until: 11:00,
  0.27,                     !- Field 14
  Until: 12:00,
  0.33,                     !- Field 16
  Until: 13:00,
  0.41,                     !- Field 18
  Until: 14:00,
  0.35,                     !- Field 20
  Until: 15:00,
  0.34,                     !- Field 22
  Until: 16:00,
  0.29,                     !- Field 24
  Until: 17:00,
  0.32,                     !- Field 26
  Until: 18:00,
  0.5,                      !- Field 28
  Until: 19:00,
  0.49,                     !- Field 30
  Until: 20:00,
  0.4,                      !- Field 32
  Until: 21:00,
  0.36,                     !- Field 34
  Until: 22:00,
  0.45,                     !- Field 36
  Until: 23:00,
  0.3,                      !- Field 38
  Until: 24:00,
  0.08,                     !- Field 40
  For: Saturday WinterDesignDay,  !- Field 41
  Until: 06:00,
  0.06,                     !- Field 43
  Until: 07:00,
  0.15,                     !- Field 45
  Until: 08:00,
  0.32,                     !- Field 47
  Until: 09:00,
  0.43,                     !- Field 49
  Until: 10:00,
  0.39,                     !- Field 51
  Until: 11:00,
  0.34,                     !- Field 53
  Until: 12:00,
  0.36,                     !- Field 55
  Until: 13:00,
  0.45,                     !- Field 57
  Until: 15:00,
  0.39,                     !- Field 59
  Until: 16:00,
  0.33,                     !- Field 61
  Until: 17:00,
  0.35,                     !- Field 63
  Until: 19:00,
  0.48,                     !- Field 65
  Until: 20:00,
  0.44,                     !- Field 67
  Until: 22:00,
  0.31,                     !- Field 69
  Until: 23:00,
  0.28,                     !- Field 71
  Until: 24:00,
  0.1,                      !- Field 73
  For: Sunday Holidays AllOtherDays,  !- Field 74
  Until: 06:00,
  0.06,                     !- Field 76
  Until: 07:00,
  0.09,                     !- Field 78
  Until: 08:00,
  0.25,                     !- Field 80
  Until: 09:00,
  0.37,                     !- Field 82
  Until: 10:00,
  0.35,                     !- Field 84
  Until: 11:00,
  0.32,                     !- Field 86
  Until: 12:00,
  0.35,                     !- Field 88
  Until: 13:00,
  0.42,                     !- Field 90
  Until: 14:00,
  0.37,                     !- Field 92
  Until: 15:00,
  0.36,                     !- Field 94
  Until: 16:00,
  0.31,                     !- Field 96
  Until: 17:00,
  0.32,                     !- Field 98
  Until: 18:00,
  0.45,                     !- Field 100
  Until: 19:00,
  0.42,                     !- Field 102
  Until: 20:00,
  0.35,                     !- Field 104
  Until: 21:00,
  0.3,                      !- Field 106
  Until: 22:00,
  0.34,                     !- Field 108
  Until: 23:00,
  0.26,                     !- Field 110
  Until: 24:00,
  0.12;                     !- Field 112

! Schedule School Occupancy, ASHRAE 90.1-1989, Section 13
!  Equivalent Full-Load Hours: Weekdays 7.1, Saturday 0.5, Sunday/Holidays 0
Schedule:Compact,
  School Occupancy,         !- Name
  Fraction,                 !- Schedule Type Limits Name
  Through: 12/31,           !- Field 1
  For: Weekdays SummerDesignDay,  !- Field 2
  Until: 07:00,
  0.0,                      !- Field 4
  Until: 08:00,
  0.05,                     !- Field 6
  Until: 09:00,
  0.75,                     !- Field 8
  Until: 11:00,
  0.9,                      !- Field 10
  Until: 15:00,
  0.8,                      !- Field 12
  Until: 16:00,
  0.45,                     !- Field 14
  Until: 17:00,
  0.15,                     !- Field 16
  Until: 18:00,
  0.05,                     !- Field 18
  Until: 19:00,
  0.15,                     !- Field 20
  Until: 21:00,
  0.2,                      !- Field 22
  Until: 22:00,
  0.1,                      !- Field 24
  Until: 24:00,
  0.0,                      !- Field 26
  For: Saturday WinterDesignDay,  !- Field 27
  Until: 08:00,
  0.0,                      !- Field 29
  Until: 13:00,
  0.1,                      !- Field 31
  Until: 24:00,
  0.0,                      !- Field 33
  For: Sunday Holidays AllOtherDays,  !- Field 34
  Until: 24:00,
  0.0;                      !- Field 36

Schedule:Compact,
  Office Occupancy Schedule,  !- Name
  Fraction,                 !- Schedule Type Limits Name
  Through: 12/31,           !- Field 1
  For: Weekdays,            !- Field 2
  Until: 06:00,
  0.0,                      !- Field 3
  Until: 07:00,
  0.1,                      !- Field 5
  Until: 08:00,
  0.2,                      !- Field 7
  Until: 12:00,
  0.95,                     !- Field 9
  Until: 13:00,
  0.5,                      !- Field 11
  Until: 17:00,
  0.95,                     !- Field 13
  Until: 18:00,
  0.3,                      !- Field 15
  Until: 20:00,
  0.1,                      !- Field 17
  Until: 24:00,
  0.05,                     !- Field 19
  For: SummerDesignDay,     !- Field 21
  Until: 06:00,
  0.0,                      !- Field 22
  Until: 22:00,
  1.0,                      !- Field 24
  Until: 24:00,
  0.05,                     !- Field 26
  For: Saturday,            !- Field 28
  Until: 06:00,
  0.0,                      !- Field 29
  Until: 08:00,
  0.1,                      !- Field 31
  Until: 12:00,
  0.3,                      !- Field 33
  Until: 17:00,
  0.1,                      !- Field 35
  Until: 19:00,
  0.0,                      !- Field 37
  Until: 24:00,
  0.0,                      !- Field 39
  For: WinterDesignDay,     !- Field 41
  Until: 24:00,
  0.0,                      !- Field 42
  For: Sunday Holidays AllOtherDays,  !- Field 44
  Until: 06:00,
  0.0,                      !- Field 45
  Until: 18:00,
  0.0,                      !- Field 47
  Until: 24:00,
  0.0;                      !- Field 49

! Schedule Minimum Outside Air
Schedule:Compact,
  Minimum Outside Air,      !- Name
  Fraction,                 !- Schedule Type Limits Name
  Through: 12/31,           !- Field 1
  For: Weekdays SummerDesignDay,  !- Field 2
  Until: 24:00,
  0.15,                     !- Field 4