!-Generator IDFEditor 1.42
!-Option SortedOrder

!-NOTE: All comments with '!-' are ignored by the IDFEditor and are generated automatically.
!-      Use '!' comments if they need to be retained when using the IDFEditor.


!-   ===========  ALL OBJECTS IN CLASS: VERSION ===========

! File generated by DesignBuilder - 3.0.0.104 3/18/2012 - 9:46:52 PM
! Source file: C:\Users\Jeremiah\Documents\DesignBuilder Data\ASHRAE Room Study.dsb
Version,
    7.1;                     !- Version Identifier


!-   ===========  ALL OBJECTS IN CLASS: SIMULATIONCONTROL ===========

SimulationControl,
    Yes,                     !- Do Zone Sizing Calculation
    Yes,                     !- Do System Sizing Calculation
    No,                      !- Do Plant Sizing Calculation
    Yes,                     !- Run Simulation for Sizing Periods
    Yes;                     !- Run Simulation for Weather File Run Periods


!-   ===========  ALL OBJECTS IN CLASS: BUILDING ===========

Building,
    M51-Q25,                 !- Name
    0,                       !- North Axis {deg}
    Suburbs,                 !- Terrain
    0.04,                    !- Loads Convergence Tolerance Value
    0.4,                     !- Temperature Convergence Tolerance Value {deltaC}
    FullInteriorAndExterior, !- Solar Distribution
    50,                      !- Maximum Number of Warmup Days
    6;                       !- Minimum Number of Warmup Days


!-   ===========  ALL OBJECTS IN CLASS: SURFACECONVECTIONALGORITHM:INSIDE ===========

SurfaceConvectionAlgorithm:Inside,
    AdaptiveConvectionAlgorithm;  !- Algorithm


!-   ===========  ALL OBJECTS IN CLASS: SURFACECONVECTIONALGORITHM:OUTSIDE ===========

SurfaceConvectionAlgorithm:Outside,
    AdaptiveConvectionAlgorithm;  !- Algorithm


!-   ===========  ALL OBJECTS IN CLASS: HEATBALANCEALGORITHM ===========

HeatBalanceAlgorithm,
    ConductionFiniteDifference;  !- Algorithm


!-   ===========  ALL OBJECTS IN CLASS: HEATBALANCESETTINGS:CONDUCTIONFINITEDIFFERENCE ===========

HeatBalanceSettings:ConductionFiniteDifference,
    FullyImplicitFirstOrder, !- Difference Scheme
    3,                       !- Space Discretization Constant
    1,                       !- Relaxation Factor
    0.002;                   !- Inside Face Surface Temperature Convergence Criteria


!-   ===========  ALL OBJECTS IN CLASS: ZONEAIRHEATBALANCEALGORITHM ===========

ZoneAirHeatBalanceAlgorithm,
    AnalyticalSolution;      !- Algorithm


!-   ===========  ALL OBJECTS IN CLASS: TIMESTEP ===========

Timestep,
    60;                      !- Number of Timesteps per Hour


!-   ===========  ALL OBJECTS IN CLASS: COMPLIANCE:BUILDING ===========

Compliance:Building,
    =$appGAngle;             !- Building Rotation for Appendix G {deg}


!-   ===========  ALL OBJECTS IN CLASS: SIZINGPERIOD:WEATHERFILECONDITIONTYPE ===========

SizingPeriod:WeatherFileConditionType,
    Summer Extreme Weather File ,  !- Name
    SummerExtreme,           !- Period Selection
    Monday,                  !- Day of Week for Start Day
    Yes,                     !- Use Weather File Daylight Saving Period
    Yes;                     !- Use Weather File Rain and Snow Indicators

SizingPeriod:WeatherFileConditionType,
    Winter Extreme Weather File ,  !- Name
    WinterExtreme,           !- Period Selection
    Monday,                  !- Day of Week for Start Day
    Yes,                     !- Use Weather File Daylight Saving Period
    Yes;                     !- Use Weather File Rain and Snow Indicators


!-   ===========  ALL OBJECTS IN CLASS: RUNPERIOD ===========

RunPeriod,
    Annual,                  !- Name
    1,                       !- Begin Month
    1,                       !- Begin Day of Month
    12,                      !- End Month
    31,                      !- End Day of Month
    Monday,                  !- Day of Week for Start Day
    No,                      !- Use Weather File Holidays and Special Days
    No,                      !- Use Weather File Daylight Saving Period
    No,                      !- Apply Weekend Holiday Rule
    Yes,                     !- Use Weather File Rain Indicators
    Yes,                     !- Use Weather File Snow Indicators
    1;                       !- Number of Times Runperiod to be Repeated


!-   ===========  ALL OBJECTS IN CLASS: SITE:GROUNDTEMPERATURE:BUILDINGSURFACE ===========

Site:GroundTemperature:BuildingSurface,
    20.03,                   !- January Ground Temperature {C}
    20.03,                   !- February Ground Temperature {C}
    20.13,                   !- March Ground Temperature {C}
    20.30,                   !- April Ground Temperature {C}
    20.43,                   !- May Ground Temperature {C}
    20.52,                   !- June Ground Temperature {C}
    20.62,                   !- July Ground Temperature {C}
    20.77,                   !- August Ground Temperature {C}
    20.78,                   !- September Ground Temperature {C}
    20.55,                   !- October Ground Temperature {C}
    20.44,                   !- November Ground Temperature {C}
    20.20;                   !- December Ground Temperature {C}


!-   ===========  ALL OBJECTS IN CLASS: SCHEDULETYPELIMITS ===========

! Not limited
ScheduleTypeLimits,
    Any Number;              !- Name

ScheduleTypeLimits,
    Fraction,                !- Name
    0.0,                     !- Lower Limit Value
    1.0,                     !- Upper Limit Value
    CONTINUOUS;              !- Numeric Type

ScheduleTypeLimits,
    Temperature,             !- Name
    -60,                     !- Lower Limit Value
    200,                     !- Upper Limit Value
    CONTINUOUS;              !- Numeric Type

ScheduleTypeLimits,
    Control Type,            !- Name
    0,                       !- Lower Limit Value
    4,                       !- Upper Limit Value
    DISCRETE;                !- Numeric Type

ScheduleTypeLimits,
    On/Off,                  !- Name
    0,                       !- Lower Limit Value
    1,                       !- Upper Limit Value
    DISCRETE;                !- Numeric Type


!-   ===========  ALL OBJECTS IN CLASS: SCHEDULE:COMPACT ===========

Schedule:Compact,
    HeatingAvailSched,       !- Name
    On/Off,                  !- Schedule Type Limits Name
    Through: 12/31,          !- Field 1
    For: AllDays,            !- Field 2
    Until: 24:00,            !- Field 3
    1.0;                     !- Field 4

Schedule:Compact,
    People,                  !- Name
    Fraction,                !- Schedule Type Limits Name
    Through: 31 Dec,         !- Field 1
    For: Weekdays SummerDesignDay,  !- Field 2
    Until: 07:00,            !- Field 3
    0,                       !- Field 4
    Until: 08:00,            !- Field 5
    0.25,                    !- Field 6
    Until: 09:00,            !- Field 7
    0.5,                     !- Field 8
    Until: 12:00,            !- Field 9
    1,                       !- Field 10
    Until: 14:00,            !- Field 11
    0.75,                    !- Field 12
    Until: 17:00,            !- Field 13
    1,                       !- Field 14
    Until: 18:00,            !- Field 15
    0.5,                     !- Field 16
    Until: 19:00,            !- Field 17
    0.25,                    !- Field 18
    Until: 24:00,            !- Field 19
    0,                       !- Field 20
    For: Weekends,           !- Field 21
    Until: 24:00,            !- Field 22
    0,                       !- Field 23
    For: Holidays,           !- Field 24
    Until: 24:00,            !- Field 25
    0,                       !- Field 26
    For: WinterDesignDay AllOtherDays,  !- Field 27
    Until: 24:00,            !- Field 28
    0;                       !- Field 29

Schedule:Compact,
    Activity Schedule,       !- Name
    Any Number,              !- Schedule Type Limits Name
    Through: 12/31,          !- Field 1
    For: AllDays,            !- Field 2
    Until: 24:00,            !- Field 3
    110.7;                   !- Field 4

Schedule:Compact,
    Clothing Schedule,       !- Name
    Any Number,              !- Schedule Type Limits Name
    Through: 4/1,            !- Field 1
    For: AllDays,            !- Field 2
    Until: 24:00,            !- Field 3
    1,                       !- Field 4
    Through: 9/30,           !- Field 5
    For: AllDays,            !- Field 6
    Until: 24:00,            !- Field 7
    .5,                      !- Field 8
    Through: 12/31,          !- Field 9
    For: AllDays,            !- Field 10
    Until: 24:00,            !- Field 11
    1;                       !- Field 12

Schedule:Compact,
    Work efficiency,         !- Name
    Any Number,              !- Schedule Type Limits Name
    Through: 12/31,          !- Field 1
    For: AllDays,            !- Field 2
    Until: 24:00,            !- Field 3
    0;                       !- Field 4

Schedule:Compact,
    AirVelocitySchedule,     !- Name
    Any Number,              !- Schedule Type Limits Name
    Through: 12/31,          !- Field 1
    For: AllDays,            !- Field 2
    Until: 24:00,            !- Field 3
    .137;                    !- Field 4

Schedule:Compact,
    CoolingAvailSched,       !- Name
    On/Off,                  !- Schedule Type Limits Name
    Through: 12/31,          !- Field 1
    For: AllDays,            !- Field 2
    Until: 24:00,            !- Field 3
    1;                       !- Field 4

Schedule:Compact,
    Lighting Sched,          !- Name
    Fraction,                !- Schedule Type Limits Name
    Through: 12/31,          !- Field 1
    For: Weekdays,           !- Field 2
    Until: 05:00,            !- Field 3
    0.05,                    !- Field 4
    Until: 07:00,            !- Field 5
    0.1,                     !- Field 6
    Until: 08:00,            !- Field 7
    0.3,                     !- Field 8
    Until: 17:00,            !- Field 9
    0.9,                     !- Field 10
    Until: 18:00,            !- Field 11
    0.7,                     !- Field 12
    Until: 20:00,            !- Field 13
    0.5,                     !- Field 14
    Until: 22:00,            !- Field 15
    0.3,                     !- Field 16
    Until: 23:00,            !- Field 17
    0.1,                     !- Field 18
    Until: 24:00,            !- Field 19
    0.05,                    !- Field 20
    For: Saturday,           !- Field 21
    Until: 06:00,            !- Field 22
    0.05,                    !- Field 23
    Until: 08:00,            !- Field 24
    0.1,                     !- Field 25
    Until: 14:00,            !- Field 26
    0.5,                     !- Field 27
    Until: 17:00,            !- Field 28
    0.15,                    !- Field 29
    Until: 24:00,            !- Field 30
    0.05,                    !- Field 31
    For: SummerDesignDay,    !- Field 32
    Until: 24:00,            !- Field 33
    1.0,                     !- Field 34
    For: WinterDesignDay,    !- Field 35
    Until: 24:00,            !- Field 36
    0.0,                     !- Field 37
    For: AllOtherDays,       !- Field 38
    Until: 24:00,            !- Field 39
    0.05;                    !- Field 40

Schedule:Compact,
    Office Equip Sched,      !- Name
    Fraction,                !- Schedule Type Limits Name
    Through: 12/31,          !- Field 1
    For: Weekdays,           !- Field 2
    Until: 08:00,            !- Field 3
    0.40,                    !- Field 4
    Until: 12:00,            !- Field 5
    0.90,                    !- Field 6
    Until: 13:00,            !- Field 7
    0.80,                    !- Field 8
    Until: 17:00,            !- Field 9
    0.90,                    !- Field 10
    Until: 18:00,            !- Field 11
    0.80,                    !- Field 12
    Until: 20:00,            !- Field 13
    0.60,                    !- Field 14
    Until: 22:00,            !- Field 15
    0.50,                    !- Field 16
    Until: 24:00,            !- Field 17
    0.40,                    !- Field 18
    For: Saturday,           !- Field 19
    Until: 06:00,            !- Field 20
    0.30,                    !- Field 21
    Until: 08:00,            !- Field 22
    0.4,                     !- Field 23
    Until: 14:00,            !- Field 24
    0.5,                     !- Field 25
    Until: 17:00,            !- Field 26
    0.35,                    !- Field 27
    Until: 24:00,            !- Field 28
    0.30,                    !- Field 29
    For: SummerDesignDay,    !- Field 30
    Until: 24:00,            !- Field 31
    1.0,                     !- Field 32
    For: WinterDesignDay,    !- Field 33
    Until: 24:00,            !- Field 34
    0.0,                     !- Field 35
    For: AllOtherDays,       !- Field 36
    Until: 24:00,            !- Field 37
    0.30;                    !- Field 38

Schedule:Compact,
    On,                      !- Name
    Any Number,              !- Schedule Type Limits Name
    Through: 12/31,          !- Field 1
    For: AllDays,            !- Field 2
    Until: 24:00,            !- Field 3
    1;                       !- Field 4

Schedule:Compact,
    Zone Comfort Control Type Sched,  !- Name
    Control Type,            !- Schedule Type Limits Name
    Through: 12/31,          !- Field 1
    For: AllDays,            !- Field 2
    Until: 24:00,            !- Field 3
    4;                       !- Field 4

Schedule:Compact,
    Heating PMV Setpoints,   !- Name
    Any Number,              !- Schedule Type Limits Name
    Through: 12/31,          !- Field 1
    For: AllDays,            !- Field 2
    Until:  7:00,            !- Field 3
    -1.0,                    !- Field 4
    Until: 17:00,            !- Field 5
    -0.3,                    !- Field 6
    Until: 24:00,            !- Field 7
    -1.0;                    !- Field 8

Schedule:Compact,
    Cooling PMV Setpoints,   !- Name
    Any Number,              !- Schedule Type Limits Name
    Through: 12/31,          !- Field 1
    For: AllDays,            !- Field 2
    Until:  7:00,            !- Field 3
    1.0,                     !- Field 4
    Until: 17:00,            !- Field 5
    0.3,                     !- Field 6
    Until: 24:00,            !- Field 7
    1.0;                     !- Field 8

Schedule:Compact,
    Cooling Setpoints,       !- Name
    Temperature,             !- Schedule Type Limits Name
    Through: 12/31,          !- Field 1
    For: SummerDesignDay,    !- Field 2
    Until: 8:00,             !- Field 3
    27,                      !- Field 4
    Until: 18:00,            !- Field 5
    24,                      !- Field 6
    Until: 24:00,            !- Field 7
    27,                      !- Field 8
    For: WinterDesignDay,    !- Field 9
    Until: 24:00,            !- Field 10
    27,                      !- Field 11
    For: AllOtherDays,       !- Field 12
    Until: 8:00,             !- Field 13
    27,                      !- Field 14
    Until: 18:00,            !- Field 15
    23,                      !- Field 16
    Until: 24:00,            !- Field 17
    27;                      !- Field 18

Schedule:Compact,
    Heating Setpoints,       !- Name
    Temperature,             !- Schedule Type Limits Name
    Through: 12/31,          !- Field 1
    For: SummerDesignDay,    !- Field 2
    Until: 24:00,            !- Field 3
    17,                      !- Field 4
    For: WinterDesignDay,    !- Field 5
    Until: 8:00,             !- Field 6
    20,                      !- Field 7
    Until: 18:00,            !- Field 8
    20,                      !- Field 9
    Until: 24:00,            !- Field 10
    17,                      !- Field 11
    For: AllOtherDays,       !- Field 12
    Until: 8:00,             !- Field 13
    17,                      !- Field 14
    Until: 18:00,            !- Field 15
    20,                      !- Field 16
    Until: 24:00,            !- Field 17
    17;                      !- Field 18

Schedule:Compact,
    Zone Control Type Sched, !- Name
    Control Type,            !- Schedule Type Limits Name
    Through: 12/31,          !- Field 1
    For: SummerDesignDay,    !- Field 2
    Until: 24:00,            !- Field 3
    2,                       !- Field 4
    For: WinterDesignDay,    !- Field 5
    Until: 24:00,            !- Field 6
    1,                       !- Field 7
    For: AllOtherDays,       !- Field 8
    Until: 24:00,            !- Field 9
    4;                       !- Field 10


!-   ===========  ALL OBJECTS IN CLASS: MATERIAL ===========

Material,
    Fabral  L15 Liner Wall Panel (24 Gauge),  !- Name
    Rough,                   !- Roughness
    0.00056,                 !- Thickness {m}
    0.1442,                  !- Conductivity {W/m-K}
    7824.00044851669,        !- Density {kg/m3}
    0.500000552000001,       !- Specific Heat {J/kg-K}
    0.9,                     !- Thermal Absorptance
    0.7,                     !- Solar Absorptance
    0.7;                     !- Visible Absorptance

Material,
    1/2 inch fiberboard sheathing,  !- Name
    Rough,                   !- Roughness
    0.0127,                  !- Thickness {m}
    0.07,                    !- Conductivity {W/m-K}
    400,                     !- Density {kg/m3}
    1.3,                     !- Specific Heat {J/kg-K}
    0.9,                     !- Thermal Absorptance
    0.6,                     !- Solar Absorptance
    0.6;                     !- Visible Absorptance

Material,
    R17 Energy Shield Contiguous Wall Insulation,  !- Name
    MediumRough,             !- Roughness
    0.0721106,               !- Thickness {m}
    0.0240814,               !- Conductivity {W/m-K}
    45.0006407381303,        !- Density {kg/m3}
    1469.999999488,          !- Specific Heat {J/kg-K}
    0.9,                     !- Thermal Absorptance
    0.6,                     !- Solar Absorptance
    0.6;                     !- Visible Absorptance

Material,
    5/8 Gypsam,              !- Name
    Rough,                   !- Roughness
    0.0159,                  !- Thickness {m}
    0.16,                    !- Conductivity {W/m-K}
    800,                     !- Density {kg/m3}
    1.09,                    !- Specific Heat {J/kg-K}
    0.9,                     !- Thermal Absorptance
    0.4,                     !- Solar Absorptance
    0.4;                     !- Visible Absorptance

Material,
    Ceiling Tiles,           !- Name
    Rough,                   !- Roughness
    0.0008,                  !- Thickness {m}
    0.0560,                  !- Conductivity {W/m-K}
    380.00,                  !- Density {kg/m3}
    1000.00,                 !- Specific Heat {J/kg-K}
    0.9,                     !- Thermal Absorptance
    0.50,                    !- Solar Absorptance
    0.50;                    !- Visible Absorptance

Material,
    Flooring Tiles,          !- Name
    Rough,                   !- Roughness
    0.0100076,               !- Thickness {m}
    0.1400,                  !- Conductivity {W/m-K}
    650.00,                  !- Density {kg/m3}
    1200.00,                 !- Specific Heat {J/kg-K}
    0.9,                     !- Thermal Absorptance
    0.78,                    !- Solar Absorptance
    0.78;                    !- Visible Absorptance

Material,
    BioPCM,                  !- Name
    Smooth,                  !- Roughness
    0.0034,                  !- Thickness {m}
    0.2,                     !- Conductivity {W/m-K}
    860,                     !- Density {kg/m3}
    1620,                    !- Specific Heat {J/kg-K}
    0.99999,                 !- Thermal Absorptance
    1,                       !- Solar Absorptance
    1;                       !- Visible Absorptance


!-   ===========  ALL OBJECTS IN CLASS: WINDOWMATERIAL:SIMPLEGLAZINGSYSTEM ===========

WindowMaterial:SimpleGlazingSystem,
    NonRes Fixed Assembly Window,  !- Name
    3,                       !- U-Factor {W/m2-K}
    0.4;                     !- Solar Heat Gain Coefficient


!-   ===========  ALL OBJECTS IN CLASS: MATERIALPROPERTY:PHASECHANGE ===========

MaterialProperty:PhaseChange,
    BioPCM,                  !- Name
    0,                       !- Temperature Coefficient for Thermal Conductivity {W/m-K2}
    -20,                     !- Temperature 1 {C}
    0.1,                     !- Enthalpy 1 {J/kg}
    0,                       !- Temperature 2 {C}
    8,                       !- Enthalpy 2 {J/kg}
    10,                      !- Temperature 3 {C}
    19290,                   !- Enthalpy 3 {J/kg}
    15,                      !- Temperature 4 {C}
    27240,                   !- Enthalpy 4 {J/kg}
    20,                      !- Temperature 5 {C}
    36990,                   !- Enthalpy 5 {J/kg}
    23,                      !- Temperature 6 {C}
    42867,                   !- Enthalpy 6 {J/kg}
    24,                      !- Temperature 7 {C}
    56221,                   !- Enthalpy 7 {J/kg}
    24.5,                    !- Temperature 8 {C}
    83245,                   !- Enthalpy 8 {J/kg}
    25,                      !- Temperature 9 {C}
    133649,                  !- Enthalpy 9 {J/kg}
    25.5,                    !- Temperature 10 {C}
    201879,                  !- Enthalpy 10 {J/kg}
    26,                      !- Temperature 11 {C}
    236860,                  !- Enthalpy 11 {J/kg}
    28,                      !- Temperature 12 {C}
    247994,                  !- Enthalpy 12 {J/kg}
    32,                      !- Temperature 13 {C}
    254449,                  !- Enthalpy 13 {J/kg}
    35,                      !- Temperature 14 {C}
    257761,                  !- Enthalpy 14 {J/kg}
    45,                      !- Temperature 15 {C}
    266724,                  !- Enthalpy 15 {J/kg}
    100,                     !- Temperature 16 {C}
    322285;                  !- Enthalpy 16 {J/kg}


!-   ===========  ALL OBJECTS IN CLASS: CONSTRUCTION ===========

Construction,
    Exterior Wall,           !- Name
    Fabral  L15 Liner Wall Panel (24 Gauge),  !- Outside Layer
    1/2 inch fiberboard sheathing,  !- Layer 2
    R17 Energy Shield Contiguous Wall Insulation,  !- Layer 3
    BioPCM,                  !- Layer 4
    5/8 Gypsam;              !- Layer 5

Construction,
    Internal Floor,          !- Name
    Flooring Tiles;          !- Outside Layer

Construction,
    Internal Ceiling,        !- Name
    Ceiling Tiles;           !- Outside Layer

Construction,
    Internal Wall,           !- Name
    5/8 Gypsam;              !- Outside Layer

Construction,
    Window,                  !- Name
    NonRes Fixed Assembly Window;  !- Outside Layer


!-   ===========  ALL OBJECTS IN CLASS: GLOBALGEOMETRYRULES ===========

GlobalGeometryRules,
    LowerLeftCorner,         !- Starting Vertex Position
    CounterClockWise,        !- Vertex Entry Direction
    Relative;                !- Coordinate System


!-   ===========  ALL OBJECTS IN CLASS: ZONE ===========

Zone,
    Block1:Zone1,            !- Name
    0,                       !- Direction of Relative North {deg}
    0,                       !- X Origin {m}
    0,                       !- Y Origin {m}
    0,                       !- Z Origin {m}
    1,                       !- Type
    1,                       !- Multiplier
    autocalculate,           !- Ceiling Height {m}
    autocalculate;           !- Volume {m3}


!-   ===========  ALL OBJECTS IN CLASS: BUILDINGSURFACE:DETAILED ===========

BuildingSurface:Detailed,
    Block1:Zone1_Floor_0_0_0,!- Name
    Floor,                   !- Surface Type
    Internal Floor,          !- Construction Name
    Block1:Zone1,            !- Zone Name
    Surface,                 !- Outside Boundary Condition
    Block1:Zone1_Floor_0_0_0,!- Outside Boundary Condition Object
    NoSun,                   !- Sun Exposure
    NoWind,                  !- Wind Exposure
    0,                       !- View Factor to Ground
    4,                       !- Number of Vertices
    -.3611482745,            !- Vertex 1 X-coordinate {m}
    -4.049124475,            !- Vertex 1 Y-coordinate {m}
    0,                       !- Vertex 1 Z-coordinate {m}
    -4.6971482745,           !- Vertex 2 X-coordinate {m}
    -4.049124475,            !- Vertex 2 Y-coordinate {m}
    0,                       !- Vertex 2 Z-coordinate {m}
    -4.6971482745,           !- Vertex 3 X-coordinate {m}
    0.286875525,             !- Vertex 3 Y-coordinate {m}
    0,                       !- Vertex 3 Z-coordinate {m}
    -.3611482745,            !- Vertex 4 X-coordinate {m}
    0.286875525,             !- Vertex 4 Y-coordinate {m}
    0;                       !- Vertex 4 Z-coordinate {m}

BuildingSurface:Detailed,
    Block1:Zone1_Ceiling_1_0_0,  !- Name
    Ceiling,                 !- Surface Type
    Internal Ceiling,        !- Construction Name
    Block1:Zone1,            !- Zone Name
    Surface,                 !- Outside Boundary Condition
    Block1:Zone1_Ceiling_1_0_0,  !- Outside Boundary Condition Object
    NoSun,                   !- Sun Exposure
    NoWind,                  !- Wind Exposure
    0,                       !- View Factor to Ground
    4,                       !- Number of Vertices
    -4.6971482745,           !- Vertex 1 X-coordinate {m}
    -4.049124475,            !- Vertex 1 Y-coordinate {m}
    3.048,                   !- Vertex 1 Z-coordinate {m}
    -.3611482745,            !- Vertex 2 X-coordinate {m}
    -4.049124475,            !- Vertex 2 Y-coordinate {m}
    3.048,                   !- Vertex 2 Z-coordinate {m}
    -.3611482745,            !- Vertex 3 X-coordinate {m}
    0.286875525,             !- Vertex 3 Y-coordinate {m}
    3.048,                   !- Vertex 3 Z-coordinate {m}
    -4.6971482745,           !- Vertex 4 X-coordinate {m}
    0.286875525,             !- Vertex 4 Y-coordinate {m}
    3.048;                   !- Vertex 4 Z-coordinate {m}

BuildingSurface:Detailed,
    Block1:Zone1_Partition_2_0_0,  !- Name
    Wall,                    !- Surface Type
    Internal Wall,           !- Construction Name
    Block1:Zone1,            !- Zone Name
    Surface,                 !- Outside Boundary Condition
    Block1:Zone1_Partition_2_0_0,  !- Outside Boundary Condition Object
    NoSun,                   !- Sun Exposure
    NoWind,                  !- Wind Exposure
    0,                       !- View Factor to Ground
    4,                       !- Number of Vertices
    -.3611482745,            !- Vertex 1 X-coordinate {m}
    -4.049124475,            !- Vertex 1 Y-coordinate {m}
    0,                       !- Vertex 1 Z-coordinate {m}
    -.3611482745,            !- Vertex 2 X-coordinate {m}
    0.286875525,             !- Vertex 2 Y-coordinate {m}
    0,                       !- Vertex 2 Z-coordinate {m}
    -.3611482745,            !- Vertex 3 X-coordinate {m}
    0.286875525,             !- Vertex 3 Y-coordinate {m}
    3.048,                   !- Vertex 3 Z-coordinate {m}
    -.3611482745,            !- Vertex 4 X-coordinate {m}
    -4.049124475,            !- Vertex 4 Y-coordinate {m}
    3.048;                   !- Vertex 4 Z-coordinate {m}

BuildingSurface:Detailed,
    Block1:Zone1_Partition_3_0_0,  !- Name
    Wall,                    !- Surface Type
    Internal Wall,           !- Construction Name
    Block1:Zone1,            !- Zone Name
    Surface,                 !- Outside Boundary Condition
    Block1:Zone1_Partition_3_0_0,  !- Outside Boundary Condition Object
    NoSun,                   !- Sun Exposure
    NoWind,                  !- Wind Exposure
    0,                       !- View Factor to Ground
    4,                       !- Number of Vertices
    -.3611482745,            !- Vertex 1 X-coordinate {m}
    0.286875525,             !- Vertex 1 Y-coordinate {m}
    0,                       !- Vertex 1 Z-coordinate {m}
    -4.6971482745,           !- Vertex 2 X-coordinate {m}
    0.286875525,             !- Vertex 2 Y-coordinate {m}
    0,                       !- Vertex 2 Z-coordinate {m}
    -4.6971482745,           !- Vertex 3 X-coordinate {m}
    0.286875525,             !- Vertex 3 Y-coordinate {m}
    3.048,                   !- Vertex 3 Z-coordinate {m}
    -.3611482745,            !- Vertex 4 X-coordinate {m}
    0.286875525,             !- Vertex 4 Y-coordinate {m}
    3.048;                   !- Vertex 4 Z-coordinate {m}

BuildingSurface:Detailed,
    Block1:Zone1_Partition_4_0_0,  !- Name
    Wall,                    !- Surface Type
    Internal Wall,           !- Construction Name
    Block1:Zone1,            !- Zone Name
    Surface,                 !- Outside Boundary Condition
    Block1:Zone1_Partition_4_0_0,  !- Outside Boundary Condition Object
    NoSun,                   !- Sun Exposure
    NoWind,                  !- Wind Exposure
    0,                       !- View Factor to Ground
    4,                       !- Number of Vertices
    -4.6971482745,           !- Vertex 1 X-coordinate {m}
    0.286875525,             !- Vertex 1 Y-coordinate {m}
    0,                       !- Vertex 1 Z-coordinate {m}
    -4.6971482745,           !- Vertex 2 X-coordinate {m}
    -4.049124475,            !- Vertex 2 Y-coordinate {m}
    0,                       !- Vertex 2 Z-coordinate {m}
    -4.6971482745,           !- Vertex 3 X-coordinate {m}
    -4.049124475,            !- Vertex 3 Y-coordinate {m}
    3.048,                   !- Vertex 3 Z-coordinate {m}
    -4.6971482745,           !- Vertex 4 X-coordinate {m}
    0.286875525,             !- Vertex 4 Y-coordinate {m}
    3.048;                   !- Vertex 4 Z-coordinate {m}

BuildingSurface:Detailed,
    Block1:Zone1_Wall_5_0_0, !- Name
    Wall,                    !- Surface Type
    Exterior Wall,           !- Construction Name
    Block1:Zone1,            !- Zone Name
    Outdoors,                !- Outside Boundary Condition
    ,                        !- Outside Boundary Condition Object
    SunExposed,              !- Sun Exposure